AMOSTRA/RIM/Cargas.dss
! ==========================================================
! CARGAS — mes 01
! BT: UCBT_tab agregada por transformador (kW = ENE/730 h)
! MT: UCMT_tab individual no PAC do consumidor
! fator de escala aplicado: 1
! 0 cargas de MT descartadas por PAC ausente da rede.
! ==========================================================
New Load.BT_2771368_1 Bus1=2771368-10831380.1.4 Phases=1 Model=8 zipv=(0.5,0,0.5,1,0,0,0) kv=0.1270 pf=0.92 kW=7.969607 Daily=RES-Tipo7
New Load.BT_2771368_2 Bus1=2771368-10831380.2.4 Phases=1 Model=8 zipv=(0.5,0,0.5,1,0,0,0) kv=0.1270 pf=0.92 kW=7.969607 Daily=RES-Tipo7
New Load.BT_2771368_3 Bus1=2771368-10831380.3.4 Phases=1 Model=8 zipv=(0.5,0,0.5,1,0,0,0) kv=0.1270 pf=0.92 kW=7.969607 Daily=RES-Tipo7
New Load.BT_2772152_1 Bus1=2772152-10823870v.1.4 Phases=1 Model=8 zipv=(0.5,0,0.5,1,0,0,0) kv=0.1100 pf=0.92 kW=0.070966 Daily=RES-Tipo5
New Load.BT_2772152_2 Bus1=2772152-10823870v.2.4 Phases=1 Model=8 zipv=(0.5,0,0.5,1,0,0,0) kv=0.1100 pf=0.92 kW=0.070966 Daily=RES-Tipo5
New Load.BT_2771431_1 Bus1=2771431-10843534.1.4 Phases=1 Model=8 zipv=(0.5,0,0.5,1,0,0,0) kv=0.1270 pf=0.92 kW=4.035744 Daily=RUR-Tipo10
New Load.BT_2771431_2 Bus1=2771431-10843534.2.4 Phases=1 Model=8 zipv=(0.5,0,0.5,1,0,0,0) kv=0.1270 pf=0.92 kW=4.035744 Daily=RUR-Tipo10
New Load.BT_2771431_3 Bus1=2771431-10843534.3.4 Phases=1 Model=8 zipv=(0.5,0,0.5,1,0,0,0) kv=0.1270 pf=0.92 kW=4.035744 Daily=RUR-Tipo10
New Load.BT_2772524_1 Bus1=2772524-10823806.1.4 Phases=1 Model=8 zipv=(0.5,0,0.5,1,0,0,0) kv=0.1270 pf=0.92 kW=6.329808 Daily=RUR-Tipo2
New Load.BT_2772524_2 Bus1=2772524-10823806.2.4 Phases=1 Model=8 zipv=(0.5,0,0.5,1,0,0,0) kv=0.1270 pf=0.92 kW=6.329808 Daily=RUR-Tipo2
New Load.BT_2772524_3 Bus1=2772524-10823806.3.4 Phases=1 Model=8 zipv=(0.5,0,0.5,1,0,0,0) kv=0.1270 pf=0.92 kW=6.329808 Daily=RUR-Tipo2
New Load.BT_2771848_1 Bus1=2771848-10826191.1.4 Phases=1 Model=8 zipv=(0.5,0,0.5,1,0,0,0) kv=0.1270 pf=0.92 kW=0.732945 Daily=RUR-Tipo2
New Load.BT_2771848_2 Bus1=2771848-10826191.2.4 Phases=1 Model=8 zipv=(0.5,0,0.5,1,0,0,0) kv=0.1270 pf=0.92 kW=0.732945 Daily=RUR-Tipo2
New Load.BT_2771848_3 Bus1=2771848-10826191.3.4 Phases=1 Model=8 zipv=(0.5,0,0.5,1,0,0,0) kv=0.1270 pf=0.92 kW=0.732945 Daily=RUR-Tipo2
New Load.BT_3161599_1 Bus1=3161599-12738271.1.4 Phases=1 Model=8 zipv=(0.5,0,0.5,1,0,0,0) kv=0.1100 pf=0.92 kW=1.341582 Daily=RUR-Tipo5
New Load.BT_3161599_2 Bus1=3161599-12738271.2.4 Phases=1 Model=8 zipv=(0.5,0,0.5,1,0,0,0) kv=0.1100 pf=0.92 kW=1.341582 Daily=RUR-Tipo5
New Load.BT_2771632_1 Bus1=2771632-10825835.1.4 Phases=1 Model=8 zipv=(0.5,0,0.5,1,0,0,0) kv=0.1270 pf=0.92 kW=9.871699 Daily=RES-Tipo7
New Load.BT_2771632_2 Bus1=2771632-10825835.2.4 Phases=1 Model=8 zipv=(0.5,0,0.5,1,0,0,0) kv=0.1270 pf=0.92 kW=9.871699 Daily=RES-Tipo7
New Load.BT_2771632_3 Bus1=2771632-10825835.3.4 Phases=1 Model=8 zipv=(0.5,0,0.5,1,0,0,0) kv=0.1270 pf=0.92 kW=9.871699 Daily=RES-Tipo7
New Load.BT_2773073_1 Bus1=2773073-10823724.1.4 Phases=1 Model=8 zipv=(0.5,0,0.5,1,0,0,0) kv=0.1100 pf=0.92 kW=0.057890 Daily=RES-Tipo4
New Load.BT_2773073_2 Bus1=2773073-10823724.2.4 Phases=1 Model=8 zipv=(0.5,0,0.5,1,0,0,0) kv=0.1100 pf=0.92 kW=0.057890 Daily=RES-Tipo4
New Load.BT_2772265_1 Bus1=2772265-10826919.1.4 Phases=1 Model=8 zipv=(0.5,0,0.5,1,0,0,0) kv=0.1270 pf=0.92 kW=4.874562 Daily=RES-Tipo7
New Load.BT_2772265_2 Bus1=2772265-10826919.2.4 Phases=1 Model=8 zipv=(0.5,0,0.5,1,0,0,0) kv=0.1270 pf=0.92 kW=4.874562 Daily=RES-Tipo7
New Load.BT_2772265_3 Bus1=2772265-10826919.3.4 Phases=1 Model=8 zipv=(0.5,0,0.5,1,0,0,0) kv=0.1270 pf=0.92 kW=4.874562 Daily=RES-Tipo7
New Load.BT_2771532_1 Bus1=2771532-10834032.1.4 Phases=1 Model=8 zipv=(0.5,0,0.5,1,0,0,0) kv=0.1270 pf=0.92 kW=14.828151 Daily=RES-Tipo7
New Load.BT_2771532_2 Bus1=2771532-10834032.2.4 Phases=1 Model=8 zipv=(0.5,0,0.5,1,0,0,0) kv=0.1270 pf=0.92 kW=14.828151 Daily=RES-Tipo7
New Load.BT_2771532_3 Bus1=2771532-10834032.3.4 Phases=1 Model=8 zipv=(0.5,0,0.5,1,0,0,0) kv=0.1270 pf=0.92 kW=14.828151 Daily=RES-Tipo7
New Load.BT_2772243_1 Bus1=2772243-10839009.1.4 Phases=1 Model=8 zipv=(0.5,0,0.5,1,0,0,0) kv=0.1270 pf=0.92 kW=18.428005 Daily=RES-Tipo7
New Load.BT_2772243_2 Bus1=2772243-10839009.2.4 Phases=1 Model=8 zipv=(0.5,0,0.5,1,0,0,0) kv=0.1270 pf=0.92 kW=18.428005 Daily=RES-Tipo7
New Load.BT_2772243_3 Bus1=2772243-10839009.3.4 Phases=1 Model=8 zipv=(0.5,0,0.5,1,0,0,0) kv=0.1270 pf=0.92 kW=18.428005 Daily=RES-Tipo7
New Load.BT_2771571_1 Bus1=2771571-10833875.1.4 Phases=1 Model=8 zipv=(0.5,0,0.5,1,0,0,0) kv=0.1270 pf=0.92 kW=6.945174 Daily=RES-Tipo4
New Load.BT_2771571_2 Bus1=2771571-10833875.2.4 Phases=1 Model=8 zipv=(0.5,0,0.5,1,0,0,0) kv=0.1270 pf=0.92 kW=6.945174 Daily=RES-Tipo4
New Load.BT_2771571_3 Bus1=2771571-10833875.3.4 Phases=1 Model=8 zipv=(0.5,0,0.5,1,0,0,0) kv=0.1270 pf=0.92 kW=6.945174 Daily=RES-Tipo4
New Load.BT_2771861_1 Bus1=2771861-10823749v.1.4 Phases=1 Model=8 zipv=(0.5,0,0.5,1,0,0,0) kv=0.1100 pf=0.92 kW=0.142130 Daily=RES-Tipo1
New Load.BT_2771861_2 Bus1=2771861-10823749v.2.4 Phases=1 Model=8 zipv=(0.5,0,0.5,1,0,0,0) kv=0.1100 pf=0.92 kW=0.142130 Daily=RES-Tipo1
New Load.BT_2611480_1 Bus1=2611480-9992380v.1.4 Phases=1 Model=8 zipv=(0.5,0,0.5,1,0,0,0) kv=0.1100 pf=0.92 kW=0.155123 Daily=RUR-Tipo2
New Load.BT_2611480_2 Bus1=2611480-9992380v.2.4 Phases=1 Model=8 zipv=(0.5,0,0.5,1,0,0,0) kv=0.1100 pf=0.92 kW=0.155123 Daily=RUR-Tipo2
New Load.BT_2611716_1 Bus1=2611716-9992382v.1.4 Phases=1 Model=8 zipv=(0.5,0,0.5,1,0,0,0) kv=0.1100 pf=0.92 kW=0.013521 Daily=RES-Tipo5
New Load.BT_2611716_2 Bus1=2611716-9992382v.2.4 Phases=1 Model=8 zipv=(0.5,0,0.5,1,0,0,0) kv=0.1100 pf=0.92 kW=0.013521 Daily=RES-Tipo5
New Load.BT_2612039_1 Bus1=2612039-9992385v.1.4 Phases=1 Model=8 zipv=(0.5,0,0.5,1,0,0,0) kv=0.1100 pf=0.92 kW=0.378459 Daily=RUR-Tipo6
New Load.BT_2612039_2 Bus1=2612039-9992385v.2.4 Phases=1 Model=8 zipv=(0.5,0,0.5,1,0,0,0) kv=0.1100 pf=0.92 kW=0.378459 Daily=RUR-Tipo6
New Load.BT_2611260_1 Bus1=2611260-9992387v.1.4 Phases=1 Model=8 zipv=(0.5,0,0.5,1,0,0,0) kv=0.1100 pf=0.92 kW=0.107493 Daily=RUR-Tipo6
New Load.BT_2611260_2 Bus1=2611260-9992387v.2.4 Phases=1 Model=8 zipv=(0.5,0,0.5,1,0,0,0) kv=0.1100 pf=0.92 kW=0.107493 Daily=RUR-Tipo6
New Load.BT_2611495_1 Bus1=2611495-9992388v.1.4 Phases=1 Model=8 zipv=(0.5,0,0.5,1,0,0,0) kv=0.1100 pf=0.92 kW=0.123753 Daily=RUR-Tipo6
New Load.BT_2611495_2 Bus1=2611495-9992388v.2.4 Phases=1 Model=8 zipv=(0.5,0,0.5,1,0,0,0) kv=0.1100 pf=0.92 kW=0.123753 Daily=RUR-Tipo6
New Load.BT_2611648_1 Bus1=2611648-9992389v.1.4 Phases=1 Model=8 zipv=(0.5,0,0.5,1,0,0,0) kv=0.1100 pf=0.92 kW=0.128062 Daily=RUR-Tipo7
New Load.BT_2611648_2 Bus1=2611648-9992389v.2.4 Phases=1 Model=8 zipv=(0.5,0,0.5,1,0,0,0) kv=0.1100 pf=0.92 kW=0.128062 Daily=RUR-Tipo7
New Load.BT_2611933_1 Bus1=2611933-9992393v.1.4 Phases=1 Model=8 zipv=(0.5,0,0.5,1,0,0,0) kv=0.1100 pf=0.92 kW=0.221849 Daily=RUR-Tipo7
New Load.BT_2611933_2 Bus1=2611933-9992393v.2.4 Phases=1 Model=8 zipv=(0.5,0,0.5,1,0,0,0) kv=0.1100 pf=0.92 kW=0.221849 Daily=RUR-Tipo7
New Load.BT_2611444_1 Bus1=2611444-9992398v.1.4 Phases=1 Model=8 zipv=(0.5,0,0.5,1,0,0,0) kv=0.1100 pf=0.92 kW=0.007952 Daily=RUR-Tipo2
New Load.BT_2611444_2 Bus1=2611444-9992398v.2.4 Phases=1 Model=8 zipv=(0.5,0,0.5,1,0,0,0) kv=0.1100 pf=0.92 kW=0.007952 Daily=RUR-Tipo2
New Load.BT_2611311_1 Bus1=2611311-9992366v.1.4 Phases=1 Model=8 zipv=(0.5,0,0.5,1,0,0,0) kv=0.1100 pf=0.92 kW=0.207377 Daily=RUR-Tipo10
New Load.BT_2611311_2 Bus1=2611311-9992366v.2.4 Phases=1 Model=8 zipv=(0.5,0,0.5,1,0,0,0) kv=0.1100 pf=0.92 kW=0.207377 Daily=RUR-Tipo10
New Load.BT_2611936_1 Bus1=2611936-9992367v.1.4 Phases=1 Model=8 zipv=(0.5,0,0.5,1,0,0,0) kv=0.1100 pf=0.92 kW=0.005568 Daily=RES-Tipo2
New Load.BT_2611936_2 Bus1=2611936-9992367v.2.4 Phases=1 Model=8 zipv=(0.5,0,0.5,1,0,0,0) kv=0.1100 pf=0.92 kW=0.005568 Daily=RES-Tipo2
New Load.BT_2611836_1 Bus1=2611836-9992372v.1.4 Phases=1 Model=8 zipv=(0.5,0,0.5,1,0,0,0) kv=0.1100 pf=0.92 kW=0.217788 Daily=RUR-Tipo2
New Load.BT_2611836_2 Bus1=2611836-9992372v.2.4 Phases=1 Model=8 zipv=(0.5,0,0.5,1,0,0,0) kv=0.1100 pf=0.92 kW=0.217788 Daily=RUR-Tipo2
New Load.BT_2611484_1 Bus1=2611484-9992373v.1.4 Phases=1 Model=8 zipv=(0.5,0,0.5,1,0,0,0) kv=0.1100 pf=0.92 kW=0.185685 Daily=RUR-Tipo2
New Load.BT_2611484_2 Bus1=2611484-9992373v.2.4 Phases=1 Model=8 zipv=(0.5,0,0.5,1,0,0,0) kv=0.1100 pf=0.92 kW=0.185685 Daily=RUR-Tipo2
New Load.BT_2611463_1 Bus1=2611463-9992374v.1.4 Phases=1 Model=8 zipv=(0.5,0,0.5,1,0,0,0) kv=0.1100 pf=0.92 kW=0.457116 Daily=RUR-Tipo2
New Load.BT_2611463_2 Bus1=2611463-9992374v.2.4 Phases=1 Model=8 zipv=(0.5,0,0.5,1,0,0,0) kv=0.1100 pf=0.92 kW=0.457116 Daily=RUR-Tipo2
New Load.BT_2611650_1 Bus1=2611650-9992375v.1.4 Phases=1 Model=8 zipv=(0.5,0,0.5,1,0,0,0) kv=0.1100 pf=0.92 kW=0.193041 Daily=RUR-Tipo2
New Load.BT_2611650_2 Bus1=2611650-9992375v.2.4 Phases=1 Model=8 zipv=(0.5,0,0.5,1,0,0,0) kv=0.1100 pf=0.92 kW=0.193041 Daily=RUR-Tipo2
New Load.BT_2611821_1 Bus1=2611821-9990027v.1.4 Phases=1 Model=8 zipv=(0.5,0,0.5,1,0,0,0) kv=0.1100 pf=0.92 kW=0.054507 Daily=RUR-Tipo3
New Load.BT_2611821_2 Bus1=2611821-9990027v.2.4 Phases=1 Model=8 zipv=(0.5,0,0.5,1,0,0,0) kv=0.1100 pf=0.92 kW=0.054507 Daily=RUR-Tipo3
New Load.BT_2611806_1 Bus1=2611806-9990148v.1.4 Phases=1 Model=8 zipv=(0.5,0,0.5,1,0,0,0) kv=0.1100 pf=0.92 kW=0.306630 Daily=RUR-Tipo6
New Load.BT_2611806_2 Bus1=2611806-9990148v.2.4 Phases=1 Model=8 zipv=(0.5,0,0.5,1,0,0,0) kv=0.1100 pf=0.92 kW=0.306630 Daily=RUR-Tipo6
New Load.BT_2611895_1 Bus1=2611895-9990121v.1.4 Phases=1 Model=8 zipv=(0.5,0,0.5,1,0,0,0) kv=0.1100 pf=0.92 kW=0.044541 Daily=RUR-Tipo2
New Load.BT_2611895_2 Bus1=2611895-9990121v.2.4 Phases=1 Model=8 zipv=(0.5,0,0.5,1,0,0,0) kv=0.1100 pf=0.92 kW=0.044541 Daily=RUR-Tipo2
New Load.BT_2611418_1 Bus1=2611418-9990186v.1.4 Phases=1 Model=8 zipv=(0.5,0,0.5,1,0,0,0) kv=0.1100 pf=0.92 kW=0.180712 Daily=RUR-Tipo3
New Load.BT_2611418_2 Bus1=2611418-9990186v.2.4 Phases=1 Model=8 zipv=(0.5,0,0.5,1,0,0,0) kv=0.1100 pf=0.92 kW=0.180712 Daily=RUR-Tipo3
New Load.BT_2612008_1 Bus1=2612008-9992098v.1.4 Phases=1 Model=8 zipv=(0.5,0,0.5,1,0,0,0) kv=0.1100 pf=0.92 kW=0.316795 Daily=RUR-Tipo3
New Load.BT_2612008_2 Bus1=2612008-9992098v.2.4 Phases=1 Model=8 zipv=(0.5,0,0.5,1,0,0,0) kv=0.1100 pf=0.92 kW=0.316795 Daily=RUR-Tipo3
New Load.BT_2611696_1 Bus1=2611696-9991625v.1.4 Phases=1 Model=8 zipv=(0.5,0,0.5,1,0,0,0) kv=0.1100 pf=0.92 kW=0.084932 Daily=RUR-Tipo6
New Load.BT_2611696_2 Bus1=2611696-9991625v.2.4 Phases=1 Model=8 zipv=(0.5,0,0.5,1,0,0,0) kv=0.1100 pf=0.92 kW=0.084932 Daily=RUR-Tipo6
New Load.BT_2611472_1 Bus1=2611472-9989367.1.4 Phases=1 Model=8 zipv=(0.5,0,0.5,1,0,0,0) kv=0.1100 pf=0.92 kW=1.739774 Daily=RES-Tipo5
New Load.BT_2611472_2 Bus1=2611472-9989367.2.4 Phases=1 Model=8 zipv=(0.5,0,0.5,1,0,0,0) kv=0.1100 pf=0.92 kW=1.739774 Daily=RES-Tipo5
New Load.BT_2611421_1 Bus1=2611421-9990897.1.4 Phases=1 Model=8 zipv=(0.5,0,0.5,1,0,0,0) kv=0.1100 pf=0.92 kW=0.183493 Daily=RUR-Tipo6
New Load.BT_2611421_2 Bus1=2611421-9990897.2.4 Phases=1 Model=8 zipv=(0.5,0,0.5,1,0,0,0) kv=0.1100 pf=0.92 kW=0.183493 Daily=RUR-Tipo6
New Load.BT_2611787_1 Bus1=2611787-9989827v.1.4 Phases=1 Model=8 zipv=(0.5,0,0.5,1,0,0,0) kv=0.1100 pf=0.92 kW=0.489856 Daily=RUR-Tipo8
New Load.BT_2611787_2 Bus1=2611787-9989827v.2.4 Phases=1 Model=8 zipv=(0.5,0,0.5,1,0,0,0) kv=0.1100 pf=0.92 kW=0.489856 Daily=RUR-Tipo8
New Load.BT_2611813_1 Bus1=2611813-9989832v.1.4 Phases=1 Model=8 zipv=(0.5,0,0.5,1,0,0,0) kv=0.1100 pf=0.92 kW=0.142685 Daily=RUR-Tipo10
New Load.BT_2611813_2 Bus1=2611813-9989832v.2.4 Phases=1 Model=8 zipv=(0.5,0,0.5,1,0,0,0) kv=0.1100 pf=0.92 kW=0.142685 Daily=RUR-Tipo10
New Load.BT_2603504_1 Bus1=2603504-9938276.1.4 Phases=1 Model=8 zipv=(0.5,0,0.5,1,0,0,0) kv=0.1270 pf=0.92 kW=12.048479 Daily=RES-Tipo8
New Load.BT_2603504_2 Bus1=2603504-9938276.2.4 Phases=1 Model=8 zipv=(0.5,0,0.5,1,0,0,0) kv=0.1270 pf=0.92 kW=12.048479 Daily=RES-Tipo8
New Load.BT_2603504_3 Bus1=2603504-9938276.3.4 Phases=1 Model=8 zipv=(0.5,0,0.5,1,0,0,0) kv=0.1270 pf=0.92 kW=12.048479 Daily=RES-Tipo8
New Load.BT_2611717_1 Bus1=2611717-9989793v.1.4 Phases=1 Model=8 zipv=(0.5,0,0.5,1,0,0,0) kv=0.1100 pf=0.92 kW=0.190897 Daily=RUR-Tipo2
New Load.BT_2611717_2 Bus1=2611717-9989793v.2.4 Phases=1 Model=8 zipv=(0.5,0,0.5,1,0,0,0) kv=0.1100 pf=0.92 kW=0.190897 Daily=RUR-Tipo2
New Load.BT_2611509_1 Bus1=2611509-9989779v.1.4 Phases=1 Model=8 zipv=(0.5,0,0.5,1,0,0,0) kv=0.1100 pf=0.92 kW=0.559726 Daily=RUR-Tipo2
New Load.BT_2611509_2 Bus1=2611509-9989779v.2.4 Phases=1 Model=8 zipv=(0.5,0,0.5,1,0,0,0) kv=0.1100 pf=0.92 kW=0.559726 Daily=RUR-Tipo2
New Load.BT_2611925_1 Bus1=2611925-9989804v.1.4 Phases=1 Model=8 zipv=(0.5,0,0.5,1,0,0,0) kv=0.1100 pf=0.92 kW=0.053336 Daily=RUR-Tipo6
New Load.BT_2611925_2 Bus1=2611925-9989804v.2.4 Phases=1 Model=8 zipv=(0.5,0,0.5,1,0,0,0) kv=0.1100 pf=0.92 kW=0.053336 Daily=RUR-Tipo6
New Load.BT_2611880_1 Bus1=2611880-9989807v.1.4 Phases=1 Model=8 zipv=(0.5,0,0.5,1,0,0,0) kv=0.1100 pf=0.92 kW=0.025103 Daily=RES-Tipo7
New Load.BT_2611880_2 Bus1=2611880-9989807v.2.4 Phases=1 Model=8 zipv=(0.5,0,0.5,1,0,0,0) kv=0.1100 pf=0.92 kW=0.025103 Daily=RES-Tipo7
New Load.BT_2611244_1 Bus1=2611244-9989809v.1.4 Phases=1 Model=8 zipv=(0.5,0,0.5,1,0,0,0) kv=0.1100 pf=0.92 kW=0.063740 Daily=RUR-Tipo7
New Load.BT_2611244_2 Bus1=2611244-9989809v.2.4 Phases=1 Model=8 zipv=(0.5,0,0.5,1,0,0,0) kv=0.1100 pf=0.92 kW=0.063740 Daily=RUR-Tipo7
New Load.BT_2611766_1 Bus1=2611766-9989783v.1.4 Phases=1 Model=8 zipv=(0.5,0,0.5,1,0,0,0) kv=0.1100 pf=0.92 kW=0.017521 Daily=RUR-Tipo2
New Load.BT_2611766_2 Bus1=2611766-9989783v.2.4 Phases=1 Model=8 zipv=(0.5,0,0.5,1,0,0,0) kv=0.1100 pf=0.92 kW=0.017521 Daily=RUR-Tipo2
New Load.BT_2611884_1 Bus1=2611884-9989784v.1.4 Phases=1 Model=8 zipv=(0.5,0,0.5,1,0,0,0) kv=0.1100 pf=0.92 kW=0.058993 Daily=RUR-Tipo2
New Load.BT_2611884_2 Bus1=2611884-9989784v.2.4 Phases=1 Model=8 zipv=(0.5,0,0.5,1,0,0,0) kv=0.1100 pf=0.92 kW=0.058993 Daily=RUR-Tipo2
New Load.BT_2611363_1 Bus1=2611363-9989786v.1.4 Phases=1 Model=8 zipv=(0.5,0,0.5,1,0,0,0) kv=0.1100 pf=0.92 kW=0.062658 Daily=RUR-Tipo2
New Load.BT_2611363_2 Bus1=2611363-9989786v.2.4 Phases=1 Model=8 zipv=(0.5,0,0.5,1,0,0,0) kv=0.1100 pf=0.92 kW=0.062658 Daily=RUR-Tipo2
New Load.BT_2611272_1 Bus1=2611272-9989790v.1.4 Phases=1 Model=8 zipv=(0.5,0,0.5,1,0,0,0) kv=0.1100 pf=0.92 kW=0.165993 Daily=RUR-Tipo3
New Load.BT_2611272_2 Bus1=2611272-9989790v.2.4 Phases=1 Model=8 zipv=(0.5,0,0.5,1,0,0,0) kv=0.1100 pf=0.92 kW=0.165993 Daily=RUR-Tipo3
New Load.BT_2611876_1 Bus1=2611876-9991428v.1.4 Phases=1 Model=8 zipv=(0.5,0,0.5,1,0,0,0) kv=0.1100 pf=0.92 kW=0.070945 Daily=RUR-Tipo2
New Load.BT_2611876_2 Bus1=2611876-9991428v.2.4 Phases=1 Model=8 zipv=(0.5,0,0.5,1,0,0,0) kv=0.1100 pf=0.92 kW=0.070945 Daily=RUR-Tipo2
New Load.BT_2611870_1 Bus1=2611870-9990832v.1.4 Phases=1 Model=8 zipv=(0.5,0,0.5,1,0,0,0) kv=0.1100 pf=0.92 kW=0.220329 Daily=RUR-Tipo10
New Load.BT_2611870_2 Bus1=2611870-9990832v.2.4 Phases=1 Model=8 zipv=(0.5,0,0.5,1,0,0,0) kv=0.1100 pf=0.92 kW=0.220329 Daily=RUR-Tipo10
New Load.BT_2611435_1 Bus1=2611435-9990840v.1.4 Phases=1 Model=8 zipv=(0.5,0,0.5,1,0,0,0) kv=0.1100 pf=0.92 kW=0.006890 Daily=RUR-Tipo2
New Load.BT_2611435_2 Bus1=2611435-9990840v.2.4 Phases=1 Model=8 zipv=(0.5,0,0.5,1,0,0,0) kv=0.1100 pf=0.92 kW=0.006890 Daily=RUR-Tipo2
New Load.BT_2612040_1 Bus1=2612040-9990842v.1.4 Phases=1 Model=8 zipv=(0.5,0,0.5,1,0,0,0) kv=0.1100 pf=0.92 kW=0.016370 Daily=RUR-Tipo2
New Load.BT_2612040_2 Bus1=2612040-9990842v.2.4 Phases=1 Model=8 zipv=(0.5,0,0.5,1,0,0,0) kv=0.1100 pf=0.92 kW=0.016370 Daily=RUR-Tipo2
New Load.BT_2611622_1 Bus1=2611622-9990887v.1.4 Phases=1 Model=8 zipv=(0.5,0,0.5,1,0,0,0) kv=0.1100 pf=0.92 kW=0.178281 Daily=RUR-Tipo6
New Load.BT_2611622_2 Bus1=2611622-9990887v.2.4 Phases=1 Model=8 zipv=(0.5,0,0.5,1,0,0,0) kv=0.1100 pf=0.92 kW=0.178281 Daily=RUR-Tipo6
New Load.BT_2612032_1 Bus1=2612032-9990889v.1.4 Phases=1 Model=8 zipv=(0.5,0,0.5,1,0,0,0) kv=0.1100 pf=0.92 kW=0.508295 Daily=RUR-Tipo6
New Load.BT_2612032_2 Bus1=2612032-9990889v.2.4 Phases=1 Model=8 zipv=(0.5,0,0.5,1,0,0,0) kv=0.1100 pf=0.92 kW=0.508295 Daily=RUR-Tipo6
New Load.BT_2612033_1 Bus1=2612033-9990904v.1.4 Phases=1 Model=8 zipv=(0.5,0,0.5,1,0,0,0) kv=0.1100 pf=0.92 kW=0.014582 Daily=RUR-Tipo6
New Load.BT_2612033_2 Bus1=2612033-9990904v.2.4 Phases=1 Model=8 zipv=(0.5,0,0.5,1,0,0,0) kv=0.1100 pf=0.92 kW=0.014582 Daily=RUR-Tipo6
New Load.BT_2611339_1 Bus1=2611339-9990909v.1.4 Phases=1 Model=8 zipv=(0.5,0,0.5,1,0,0,0) kv=0.1100 pf=0.92 kW=0.217610 Daily=RES-Tipo9
New Load.BT_2611339_2 Bus1=2611339-9990909v.2.4 Phases=1 Model=8 zipv=(0.5,0,0.5,1,0,0,0) kv=0.1100 pf=0.92 kW=0.217610 Daily=RES-Tipo9
New Load.BT_2611829_1 Bus1=2611829-9992177v.1.4 Phases=1 Model=8 zipv=(0.5,0,0.5,1,0,0,0) kv=0.1100 pf=0.92 kW=0.119288 Daily=RUR-Tipo6
New Load.BT_2611829_2 Bus1=2611829-9992177v.2.4 Phases=1 Model=8 zipv=(0.5,0,0.5,1,0,0,0) kv=0.1100 pf=0.92 kW=0.119288 Daily=RUR-Tipo6
New Load.BT_2611704_1 Bus1=2611704-9990928v.1.4 Phases=1 Model=8 zipv=(0.5,0,0.5,1,0,0,0) kv=0.1100 pf=0.92 kW=0.005966 Daily=RUR-Tipo10
New Load.BT_2611704_2 Bus1=2611704-9990928v.2.4 Phases=1 Model=8 zipv=(0.5,0,0.5,1,0,0,0) kv=0.1100 pf=0.92 kW=0.005966 Daily=RUR-Tipo10
New Load.BT_2611233_1 Bus1=2611233-9990932v.1.4 Phases=1 Model=8 zipv=(0.5,0,0.5,1,0,0,0) kv=0.1100 pf=0.92 kW=0.004863 Daily=RUR-Tipo2
New Load.BT_2611233_2 Bus1=2611233-9990932v.2.4 Phases=1 Model=8 zipv=(0.5,0,0.5,1,0,0,0) kv=0.1100 pf=0.92 kW=0.004863 Daily=RUR-Tipo2
New Load.BT_2611816_1 Bus1=2611816-9990817.1.4 Phases=1 Model=8 zipv=(0.5,0,0.5,1,0,0,0) kv=0.1100 pf=0.92 kW=0.134534 Daily=RUR-Tipo2
New Load.BT_2611816_2 Bus1=2611816-9990817.2.4 Phases=1 Model=8 zipv=(0.5,0,0.5,1,0,0,0) kv=0.1100 pf=0.92 kW=0.134534 Daily=RUR-Tipo2
New Load.BT_2611414_1 Bus1=2611414-9990859v.1.4 Phases=1 Model=8 zipv=(0.5,0,0.5,1,0,0,0) kv=0.1100 pf=0.92 kW=0.022623 Daily=RUR-Tipo3
New Load.BT_2611414_2 Bus1=2611414-9990859v.2.4 Phases=1 Model=8 zipv=(0.5,0,0.5,1,0,0,0) kv=0.1100 pf=0.92 kW=0.022623 Daily=RUR-Tipo3
New Load.BT_2611236_1 Bus1=2611236-9990882v.1.4 Phases=1 Model=8 zipv=(0.5,0,0.5,1,0,0,0) kv=0.1100 pf=0.92 kW=0.007514 Daily=RUR-Tipo6
New Load.BT_2611236_2 Bus1=2611236-9990882v.2.4 Phases=1 Model=8 zipv=(0.5,0,0.5,1,0,0,0) kv=0.1100 pf=0.92 kW=0.007514 Daily=RUR-Tipo6
New Load.BT_2611588_1 Bus1=2611588-9990884v.1.4 Phases=1 Model=8 zipv=(0.5,0,0.5,1,0,0,0) kv=0.1100 pf=0.92 kW=0.092192 Daily=RUR-Tipo6
New Load.BT_2611588_2 Bus1=2611588-9990884v.2.4 Phases=1 Model=8 zipv=(0.5,0,0.5,1,0,0,0) kv=0.1100 pf=0.92 kW=0.092192 Daily=RUR-Tipo6
New Load.BT_2611326_1 Bus1=2611326-9991914v.1.4 Phases=1 Model=8 zipv=(0.5,0,0.5,1,0,0,0) kv=0.1100 pf=0.92 kW=0.235219 Daily=RUR-Tipo5
New Load.BT_2611326_2 Bus1=2611326-9991914v.2.4 Phases=1 Model=8 zipv=(0.5,0,0.5,1,0,0,0) kv=0.1100 pf=0.92 kW=0.235219 Daily=RUR-Tipo5
New Load.BT_2611752_1 Bus1=2611752-9989745v.1.4 Phases=1 Model=8 zipv=(0.5,0,0.5,1,0,0,0) kv=0.1100 pf=0.92 kW=0.173753 Daily=RUR-Tipo2
New Load.BT_2611752_2 Bus1=2611752-9989745v.2.4 Phases=1 Model=8 zipv=(0.5,0,0.5,1,0,0,0) kv=0.1100 pf=0.92 kW=0.173753 Daily=RUR-Tipo2
New Load.BT_2611607_1 Bus1=2611607-9991065.1.4 Phases=1 Model=8 zipv=(0.5,0,0.5,1,0,0,0) kv=0.1100 pf=0.92 kW=1.707452 Daily=RES-Tipo5
New Load.BT_2611607_2 Bus1=2611607-9991065.2.4 Phases=1 Model=8 zipv=(0.5,0,0.5,1,0,0,0) kv=0.1100 pf=0.92 kW=1.707452 Daily=RES-Tipo5
New Load.BT_2611477_1 Bus1=2611477-9991302v.1.4 Phases=1 Model=8 zipv=(0.5,0,0.5,1,0,0,0) kv=0.1100 pf=0.92 kW=0.061315 Daily=RUR-Tipo3
New Load.BT_2611477_2 Bus1=2611477-9991302v.2.4 Phases=1 Model=8 zipv=(0.5,0,0.5,1,0,0,0) kv=0.1100 pf=0.92 kW=0.061315 Daily=RUR-Tipo3
New Load.BT_2611308_1 Bus1=2611308-9988852.1.4 Phases=1 Model=8 zipv=(0.5,0,0.5,1,0,0,0) kv=0.1100 pf=0.92 kW=2.469075 Daily=RES-Tipo5
New Load.BT_2611308_2 Bus1=2611308-9988852.2.4 Phases=1 Model=8 zipv=(0.5,0,0.5,1,0,0,0) kv=0.1100 pf=0.92 kW=2.469075 Daily=RES-Tipo5
New Load.BT_2773450_1 Bus1=2773450-12569878.1.4 Phases=1 Model=8 zipv=(0.5,0,0.5,1,0,0,0) kv=0.1100 pf=0.92 kW=0.245445 Daily=RUR-Tipo3
New Load.BT_2773450_2 Bus1=2773450-12569878.2.4 Phases=1 Model=8 zipv=(0.5,0,0.5,1,0,0,0) kv=0.1100 pf=0.92 kW=0.245445 Daily=RUR-Tipo3
New Load.BT_2773310_1 Bus1=2773310-10842715v.1.4 Phases=1 Model=8 zipv=(0.5,0,0.5,1,0,0,0) kv=0.1100 pf=0.92 kW=0.121363 Daily=RES-Tipo9
New Load.BT_2773310_2 Bus1=2773310-10842715v.2.4 Phases=1 Model=8 zipv=(0.5,0,0.5,1,0,0,0) kv=0.1100 pf=0.92 kW=0.121363 Daily=RES-Tipo9
New Load.BT_2771933_1 Bus1=2771933-10827266v.1.4 Phases=1 Model=8 zipv=(0.5,0,0.5,1,0,0,0) kv=0.1100 pf=0.92 kW=0.091959 Daily=RUR-Tipo5
New Load.BT_2771933_2 Bus1=2771933-10827266v.2.4 Phases=1 Model=8 zipv=(0.5,0,0.5,1,0,0,0) kv=0.1100 pf=0.92 kW=0.091959 Daily=RUR-Tipo5
New Load.BT_2770965_1 Bus1=2770965-10827267v.1.4 Phases=1 Model=8 zipv=(0.5,0,0.5,1,0,0,0) kv=0.1100 pf=0.92 kW=0.043836 Daily=RUR-Tipo5
New Load.BT_2770965_2 Bus1=2770965-10827267v.2.4 Phases=1 Model=8 zipv=(0.5,0,0.5,1,0,0,0) kv=0.1100 pf=0.92 kW=0.043836 Daily=RUR-Tipo5
New Load.BT_2773669_1 Bus1=2773669-10826765v.1.4 Phases=1 Model=8 zipv=(0.5,0,0.5,1,0,0,0) kv=0.1100 pf=0.92 kW=0.030205 Daily=RES-Tipo9
New Load.BT_2773669_2 Bus1=2773669-10826765v.2.4 Phases=1 Model=8 zipv=(0.5,0,0.5,1,0,0,0) kv=0.1100 pf=0.92 kW=0.030205 Daily=RES-Tipo9
New Load.BT_2772204_1 Bus1=2772204-10832851.1.4 Phases=1 Model=8 zipv=(0.5,0,0.5,1,0,0,0) kv=0.1100 pf=0.92 kW=0.151459 Daily=SP-Tipo7
New Load.BT_2772204_2 Bus1=2772204-10832851.2.4 Phases=1 Model=8 zipv=(0.5,0,0.5,1,0,0,0) kv=0.1100 pf=0.92 kW=0.151459 Daily=SP-Tipo7
New Load.BT_2611718_1 Bus1=2611718-9988930v.1.4 Phases=1 Model=8 zipv=(0.5,0,0.5,1,0,0,0) kv=0.1100 pf=0.92 kW=0.102212 Daily=RUR-Tipo2
New Load.BT_2611718_2 Bus1=2611718-9988930v.2.4 Phases=1 Model=8 zipv=(0.5,0,0.5,1,0,0,0) kv=0.1100 pf=0.92 kW=0.102212 Daily=RUR-Tipo2
New Load.BT_2611533_1 Bus1=2611533-9988960v.1.4 Phases=1 Model=8 zipv=(0.5,0,0.5,1,0,0,0) kv=0.1100 pf=0.92 kW=0.028171 Daily=RUR-Tipo2
New Load.BT_2611533_2 Bus1=2611533-9988960v.2.4 Phases=1 Model=8 zipv=(0.5,0,0.5,1,0,0,0) kv=0.1100 pf=0.92 kW=0.028171 Daily=RUR-Tipo2
New Load.BT_2611817_1 Bus1=2611817-9990838.1.4 Phases=1 Model=8 zipv=(0.5,0,0.5,1,0,0,0) kv=0.1100 pf=0.92 kW=0.180199 Daily=RUR-Tipo2
New Load.BT_2611817_2 Bus1=2611817-9990838.2.4 Phases=1 Model=8 zipv=(0.5,0,0.5,1,0,0,0) kv=0.1100 pf=0.92 kW=0.180199 Daily=RUR-Tipo2
New Load.BT_2611671_1 Bus1=2611671-9988911v.1.4 Phases=1 Model=8 zipv=(0.5,0,0.5,1,0,0,0) kv=0.1100 pf=0.92 kW=0.207226 Daily=RES-Tipo2
New Load.BT_2611671_2 Bus1=2611671-9988911v.2.4 Phases=1 Model=8 zipv=(0.5,0,0.5,1,0,0,0) kv=0.1100 pf=0.92 kW=0.207226 Daily=RES-Tipo2
New Load.BT_2611707_1 Bus1=2611707-9988867v.1.4 Phases=1 Model=8 zipv=(0.5,0,0.5,1,0,0,0) kv=0.1100 pf=0.92 kW=0.045692 Daily=RES-Tipo2
New Load.BT_2611707_2 Bus1=2611707-9988867v.2.4 Phases=1 Model=8 zipv=(0.5,0,0.5,1,0,0,0) kv=0.1100 pf=0.92 kW=0.045692 Daily=RES-Tipo2
New Load.BT_2611388_1 Bus1=2611388-9988869v.1.4 Phases=1 Model=8 zipv=(0.5,0,0.5,1,0,0,0) kv=0.1100 pf=0.92 kW=0.114562 Daily=RUR-Tipo2
New Load.BT_2611388_2 Bus1=2611388-9988869v.2.4 Phases=1 Model=8 zipv=(0.5,0,0.5,1,0,0,0) kv=0.1100 pf=0.92 kW=0.114562 Daily=RUR-Tipo2
New Load.BT_2611815_1 Bus1=2611815-9988872v.1.4 Phases=1 Model=8 zipv=(0.5,0,0.5,1,0,0,0) kv=0.1100 pf=0.92 kW=0.057493 Daily=RUR-Tipo2
New Load.BT_2611815_2 Bus1=2611815-9988872v.2.4 Phases=1 Model=8 zipv=(0.5,0,0.5,1,0,0,0) kv=0.1100 pf=0.92 kW=0.057493 Daily=RUR-Tipo2
New Load.BT_2611508_1 Bus1=2611508-9988873v.1.4 Phases=1 Model=8 zipv=(0.5,0,0.5,1,0,0,0) kv=0.1100 pf=0.92 kW=0.055438 Daily=RES-Tipo2
New Load.BT_2611508_2 Bus1=2611508-9988873v.2.4 Phases=1 Model=8 zipv=(0.5,0,0.5,1,0,0,0) kv=0.1100 pf=0.92 kW=0.055438 Daily=RES-Tipo2
New Load.BT_2611819_1 Bus1=2611819-9988624v.1.4 Phases=1 Model=8 zipv=(0.5,0,0.5,1,0,0,0) kv=0.1100 pf=0.92 kW=0.045185 Daily=RUR-Tipo3
New Load.BT_2611819_2 Bus1=2611819-9988624v.2.4 Phases=1 Model=8 zipv=(0.5,0,0.5,1,0,0,0) kv=0.1100 pf=0.92 kW=0.045185 Daily=RUR-Tipo3
New Load.BT_2611338_1 Bus1=2611338-9988896v.1.4 Phases=1 Model=8 zipv=(0.5,0,0.5,1,0,0,0) kv=0.1100 pf=0.92 kW=0.116884 Daily=RUR-Tipo2
New Load.BT_2611338_2 Bus1=2611338-9988896v.2.4 Phases=1 Model=8 zipv=(0.5,0,0.5,1,0,0,0) kv=0.1100 pf=0.92 kW=0.116884 Daily=RUR-Tipo2
New Load.BT_2611751_1 Bus1=2611751-9988900v.1.4 Phases=1 Model=8 zipv=(0.5,0,0.5,1,0,0,0) kv=0.1100 pf=0.92 kW=0.068979 Daily=RES-Tipo5
New Load.BT_2611751_2 Bus1=2611751-9988900v.2.4 Phases=1 Model=8 zipv=(0.5,0,0.5,1,0,0,0) kv=0.1100 pf=0.92 kW=0.068979 Daily=RES-Tipo5
New Load.BT_2611756_1 Bus1=2611756-9988901v.1.4 Phases=1 Model=8 zipv=(0.5,0,0.5,1,0,0,0) kv=0.1100 pf=0.92 kW=0.122425 Daily=RES-Tipo2
New Load.BT_2611756_2 Bus1=2611756-9988901v.2.4 Phases=1 Model=8 zipv=(0.5,0,0.5,1,0,0,0) kv=0.1100 pf=0.92 kW=0.122425 Daily=RES-Tipo2
New Load.BT_2611954_1 Bus1=2611954-9989257.1.4 Phases=1 Model=8 zipv=(0.5,0,0.5,1,0,0,0) kv=0.1100 pf=0.92 kW=0.192493 Daily=RES-Tipo5
New Load.BT_2611954_2 Bus1=2611954-9989257.2.4 Phases=1 Model=8 zipv=(0.5,0,0.5,1,0,0,0) kv=0.1100 pf=0.92 kW=0.192493 Daily=RES-Tipo5
New Load.BT_2611783_1 Bus1=2611783-9988882v.1.4 Phases=1 Model=8 zipv=(0.5,0,0.5,1,0,0,0) kv=0.1100 pf=0.92 kW=0.043192 Daily=RUR-Tipo5
New Load.BT_2611783_2 Bus1=2611783-9988882v.2.4 Phases=1 Model=8 zipv=(0.5,0,0.5,1,0,0,0) kv=0.1100 pf=0.92 kW=0.043192 Daily=RUR-Tipo5
New Load.BT_2611507_1 Bus1=2611507-9988875v.1.4 Phases=1 Model=8 zipv=(0.5,0,0.5,1,0,0,0) kv=0.1100 pf=0.92 kW=0.013897 Daily=RUR-Tipo2
New Load.BT_2611507_2 Bus1=2611507-9988875v.2.4 Phases=1 Model=8 zipv=(0.5,0,0.5,1,0,0,0) kv=0.1100 pf=0.92 kW=0.013897 Daily=RUR-Tipo2
New Load.BT_2611395_1 Bus1=2611395-9989350v.1.4 Phases=1 Model=8 zipv=(0.5,0,0.5,1,0,0,0) kv=0.1100 pf=0.92 kW=0.009945 Daily=RUR-Tipo10
New Load.BT_2611395_2 Bus1=2611395-9989350v.2.4 Phases=1 Model=8 zipv=(0.5,0,0.5,1,0,0,0) kv=0.1100 pf=0.92 kW=0.009945 Daily=RUR-Tipo10
New Load.BT_2611494_1 Bus1=2611494-9989352v.1.4 Phases=1 Model=8 zipv=(0.5,0,0.5,1,0,0,0) kv=0.1100 pf=0.92 kW=0.131466 Daily=RUR-Tipo6
New Load.BT_2611494_2 Bus1=2611494-9989352v.2.4 Phases=1 Model=8 zipv=(0.5,0,0.5,1,0,0,0) kv=0.1100 pf=0.92 kW=0.131466 Daily=RUR-Tipo6
New Load.BT_2611859_1 Bus1=2611859-9989353v.1.4 Phases=1 Model=8 zipv=(0.5,0,0.5,1,0,0,0) kv=0.1100 pf=0.92 kW=0.094808 Daily=RUR-Tipo6
New Load.BT_2611859_2 Bus1=2611859-9989353v.2.4 Phases=1 Model=8 zipv=(0.5,0,0.5,1,0,0,0) kv=0.1100 pf=0.92 kW=0.094808 Daily=RUR-Tipo6
New Load.BT_2611802_1 Bus1=2611802-9989356v.1.4 Phases=1 Model=8 zipv=(0.5,0,0.5,1,0,0,0) kv=0.1100 pf=0.92 kW=0.348760 Daily=RES-Tipo9
New Load.BT_2611802_2 Bus1=2611802-9989356v.2.4 Phases=1 Model=8 zipv=(0.5,0,0.5,1,0,0,0) kv=0.1100 pf=0.92 kW=0.348760 Daily=RES-Tipo9
New Load.BT_2611373_1 Bus1=2611373-9989358v.1.4 Phases=1 Model=8 zipv=(0.5,0,0.5,1,0,0,0) kv=0.1100 pf=0.92 kW=0.117055 Daily=RUR-Tipo7
New Load.BT_2611373_2 Bus1=2611373-9989358v.2.4 Phases=1 Model=8 zipv=(0.5,0,0.5,1,0,0,0) kv=0.1100 pf=0.92 kW=0.117055 Daily=RUR-Tipo7
New Load.BT_2611483_1 Bus1=2611483-9989360v.1.4 Phases=1 Model=8 zipv=(0.5,0,0.5,1,0,0,0) kv=0.1100 pf=0.92 kW=0.053890 Daily=RUR-Tipo10
New Load.BT_2611483_2 Bus1=2611483-9989360v.2.4 Phases=1 Model=8 zipv=(0.5,0,0.5,1,0,0,0) kv=0.1100 pf=0.92 kW=0.053890 Daily=RUR-Tipo10
New Load.BT_2611599_1 Bus1=2611599-9990385v.1.4 Phases=1 Model=8 zipv=(0.5,0,0.5,1,0,0,0) kv=0.1100 pf=0.92 kW=0.104904 Daily=RUR-Tipo5
New Load.BT_2611599_2 Bus1=2611599-9990385v.2.4 Phases=1 Model=8 zipv=(0.5,0,0.5,1,0,0,0) kv=0.1100 pf=0.92 kW=0.104904 Daily=RUR-Tipo5
...

! --- cargas de media tensao (UCMT_tab) ---
New Load.MT_25427-9919813_0 Bus1=25427-9919813.1.2.3 Phases=3 Conn=wye Model=8 zipv=(0.5,0,0.5,1,0,0,0) kv=34.5000 pf=0.92 kW=84.4577 Daily=MT-Tipo4
New Load.MT_25430-10827218_1 Bus1=25430-10827218.1.2.3 Phases=3 Conn=wye Model=8 zipv=(0.5,0,0.5,1,0,0,0) kv=34.5000 pf=0.92 kW=42.9495 Daily=MT-Tipo1
New Load.MT_25987-9936443_2 Bus1=25987-9936443.1.2.3 Phases=3 Conn=wye Model=8 zipv=(0.5,0,0.5,1,0,0,0) kv=13.8000 pf=0.92 kW=947.1891 Daily=MT-Tipo1
New Load.MT_25424-9939361_3 Bus1=25424-9939361.1.2.3 Phases=3 Conn=wye Model=8 zipv=(0.5,0,0.5,1,0,0,0) kv=13.8000 pf=0.92 kW=468.9176 Daily=MT-Tipo1
New Load.MT_25425-10838667_4 Bus1=25425-10838667.1.2.3 Phases=3 Conn=wye Model=8 zipv=(0.5,0,0.5,1,0,0,0) kv=34.5000 pf=0.92 kW=3.9494 Daily=MT-Tipo1
New Load.MT_25430-10833615_5 Bus1=25430-10833615.1.2.3 Phases=3 Conn=wye Model=8 zipv=(0.5,0,0.5,1,0,0,0) kv=34.5000 pf=0.92 kW=1.6712 Daily=MT-Tipo5
New Load.MT_25425-12212720_6 Bus1=25425-12212720.1.2.3 Phases=3 Conn=wye Model=8 zipv=(0.5,0,0.5,1,0,0,0) kv=34.5000 pf=0.92 kW=2.2223 Daily=MT-Tipo1
New Load.MT_25424-11724238_7 Bus1=25424-11724238.1.2.3 Phases=3 Conn=wye Model=8 zipv=(0.5,0,0.5,1,0,0,0) kv=13.8000 pf=0.92 kW=2.1302 Daily=MT-Tipo1
New Load.MT_25987-9936361_8 Bus1=25987-9936361.1.2.3 Phases=3 Conn=wye Model=8 zipv=(0.5,0,0.5,1,0,0,0) kv=13.8000 pf=0.92 kW=4.5853 Daily=MT-Tipo1
New Load.MT_25987-12531379_9 Bus1=25987-12531379.1.2.3 Phases=3 Conn=wye Model=8 zipv=(0.5,0,0.5,1,0,0,0) kv=13.8000 pf=0.92 kW=2.2990 Daily=MT-Tipo1
New Load.MT_25424-12535246_10 Bus1=25424-12535246.1.2.3 Phases=3 Conn=wye Model=8 zipv=(0.5,0,0.5,1,0,0,0) kv=13.8000 pf=0.92 kW=0.9155 Daily=MT-Tipo2
New Load.MT_25424-9936363_11 Bus1=25424-9936363.1.2.3 Phases=3 Conn=wye Model=8 zipv=(0.5,0,0.5,1,0,0,0) kv=13.8000 pf=0.92 kW=2.8155 Daily=MT-Tipo1
New Load.MT_25430-10836141_12 Bus1=25430-10836141.1.2.3 Phases=3 Conn=wye Model=8 zipv=(0.5,0,0.5,1,0,0,0) kv=34.5000 pf=0.92 kW=25.6284 Daily=MT-Tipo1
New Load.MT_25427-12339850_13 Bus1=25427-12339850.1.2.3 Phases=3 Conn=wye Model=8 zipv=(0.5,0,0.5,1,0,0,0) kv=34.5000 pf=0.92 kW=3.1261 Daily=MT-Tipo3
New Load.MT_25424-9940867_14 Bus1=25424-9940867.1.2.3 Phases=3 Conn=wye Model=8 zipv=(0.5,0,0.5,1,0,0,0) kv=13.8000 pf=0.92 kW=7.8197 Daily=MT-Tipo1
New Load.MT_25987-12001857_15 Bus1=25987-12001857.1.2.3 Phases=3 Conn=wye Model=8 zipv=(0.5,0,0.5,1,0,0,0) kv=13.8000 pf=0.92 kW=27.3379 Daily=MT-Tipo4
New Load.MT_25987-12536010_16 Bus1=25987-12536010.1.2.3 Phases=3 Conn=wye Model=8 zipv=(0.5,0,0.5,1,0,0,0) kv=13.8000 pf=0.92 kW=22.1694 Daily=MT-Tipo10
New Load.MT_25427-12321137_17 Bus1=25427-12321137.1.2.3 Phases=3 Conn=wye Model=8 zipv=(0.5,0,0.5,1,0,0,0) kv=34.5000 pf=0.92 kW=35.3846 Daily=MT-Tipo1
New Load.MT_25987-9937735_18 Bus1=25987-9937735.1.2.3 Phases=3 Conn=wye Model=8 zipv=(0.5,0,0.5,1,0,0,0) kv=13.8000 pf=0.92 kW=7.6170 Daily=MT-Tipo1
New Load.MT_25425-12324661_19 Bus1=25425-12324661.1.2.3 Phases=3 Conn=wye Model=8 zipv=(0.5,0,0.5,1,0,0,0) kv=34.5000 pf=0.92 kW=3.3951 Daily=MT-Tipo2
New Load.MT_25987-12007975_20 Bus1=25987-12007975.1.2.3 Phases=3 Conn=wye Model=8 zipv=(0.5,0,0.5,1,0,0,0) kv=13.8000 pf=0.92 kW=24.5802 Daily=MT-Tipo1
New Load.MT_25424-9936323_21 Bus1=25424-9936323.1.2.3 Phases=3 Conn=wye Model=8 zipv=(0.5,0,0.5,1,0,0,0) kv=13.8000 pf=0.92 kW=6.1130 Daily=MT-Tipo1
New Load.MT_25424-9937748_22 Bus1=25424-9937748.1.2.3 Phases=3 Conn=wye Model=8 zipv=(0.5,0,0.5,1,0,0,0) kv=13.8000 pf=0.92 kW=21.9402 Daily=MT-Tipo1
New Load.MT_25425-10827206_23 Bus1=25425-10827206.1.2.3 Phases=3 Conn=wye Model=8 zipv=(0.5,0,0.5,1,0,0,0) kv=34.5000 pf=0.92 kW=10.3035 Daily=MT-Tipo8
New Load.MT_25430-11761693_24 Bus1=25430-11761693.1.2.3 Phases=3 Conn=wye Model=8 zipv=(0.5,0,0.5,1,0,0,0) kv=34.5000 pf=0.92 kW=1.3366 Daily=MT-Tipo3
New Load.MT_25987-9940843_25 Bus1=25987-9940843.1.2.3 Phases=3 Conn=wye Model=8 zipv=(0.5,0,0.5,1,0,0,0) kv=13.8000 pf=0.92 kW=1.9478 Daily=MT-Tipo4
New Load.MT_25424-9937773_26 Bus1=25424-9937773.1.2.3 Phases=3 Conn=wye Model=8 zipv=(0.5,0,0.5,1,0,0,0) kv=13.8000 pf=0.92 kW=8.5361 Daily=MT-Tipo4
New Load.MT_25424-9940844_27 Bus1=25424-9940844.1.2.3 Phases=3 Conn=wye Model=8 zipv=(0.5,0,0.5,1,0,0,0) kv=13.8000 pf=0.92 kW=10.3547 Daily=MT-Tipo1
New Load.MT_25430-12230649_28 Bus1=25430-12230649.1.2.3 Phases=3 Conn=wye Model=8 zipv=(0.5,0,0.5,1,0,0,0) kv=34.5000 pf=0.92 kW=4.6320 Daily=MT-Tipo1
New Load.MT_25987-12549352_29 Bus1=25987-12549352.1.2.3 Phases=3 Conn=wye Model=8 zipv=(0.5,0,0.5,1,0,0,0) kv=13.8000 pf=0.92 kW=13.6241 Daily=MT-Tipo2
New Load.MT_25430-10840979_30 Bus1=25430-10840979.1.2.3 Phases=3 Conn=wye Model=8 zipv=(0.5,0,0.5,1,0,0,0) kv=34.5000 pf=0.92 kW=412.0644 Daily=MT-Tipo1
New Load.MT_25424-9935914_31 Bus1=25424-9935914.1.2.3 Phases=3 Conn=wye Model=8 zipv=(0.5,0,0.5,1,0,0,0) kv=13.8000 pf=0.92 kW=3.3040 Daily=MT-Tipo8
New Load.MT_25424-12689049_32 Bus1=25424-12689049.1.2.3 Phases=3 Conn=wye Model=8 zipv=(0.5,0,0.5,1,0,0,0) kv=13.8000 pf=0.92 kW=2.8174 Daily=MT-Tipo2
New Load.MT_25424-11369217_33 Bus1=25424-11369217.1.2.3 Phases=3 Conn=wye Model=8 zipv=(0.5,0,0.5,1,0,0,0) kv=13.8000 pf=0.92 kW=0.6654 Daily=MT-Tipo7
New Load.MT_25987-9939812_34 Bus1=25987-9939812.1.2.3 Phases=3 Conn=wye Model=8 zipv=(0.5,0,0.5,1,0,0,0) kv=13.8000 pf=0.92 kW=1.8219 Daily=MT-Tipo1
New Load.MT_25987-9936343_44 Bus1=25987-9936343.1.2.3 Phases=3 Conn=wye Model=8 zipv=(0.5,0,0.5,1,0,0,0) kv=13.8000 pf=0.92 kW=26.9576 Daily=MT-Tipo2
New Load.MT_25430-12497136_45 Bus1=25430-12497136.1.2.3 Phases=3 Conn=wye Model=8 zipv=(0.5,0,0.5,1,0,0,0) kv=34.5000 pf=0.92 kW=5.5574 Daily=MT-Tipo1
New Load.MT_25987-9940096_46 Bus1=25987-9940096.1.2.3 Phases=3 Conn=wye Model=8 zipv=(0.5,0,0.5,1,0,0,0) kv=13.8000 pf=0.92 kW=9.7770 Daily=MT-Tipo8
New Load.MT_25424-9936446_47 Bus1=25424-9936446.1.2.3 Phases=3 Conn=wye Model=8 zipv=(0.5,0,0.5,1,0,0,0) kv=13.8000 pf=0.92 kW=11.9934 Daily=MT-Tipo8
New Load.MT_25987-12525798_48 Bus1=25987-12525798.1.2.3 Phases=3 Conn=wye Model=8 zipv=(0.5,0,0.5,1,0,0,0) kv=13.8000 pf=0.92 kW=2.3156 Daily=MT-Tipo1
New Load.MT_25424-9940873_49 Bus1=25424-9940873.1.2.3 Phases=3 Conn=wye Model=8 zipv=(0.5,0,0.5,1,0,0,0) kv=13.8000 pf=0.92 kW=5.6437 Daily=MT-Tipo4
New Load.MT_25987-9936468_50 Bus1=25987-9936468.1.2.3 Phases=3 Conn=wye Model=8 zipv=(0.5,0,0.5,1,0,0,0) kv=13.8000 pf=0.92 kW=9.6226 Daily=MT-Tipo1
New Load.MT_25427-9989355_51 Bus1=25427-9989355.1.2.3 Phases=3 Conn=wye Model=8 zipv=(0.5,0,0.5,1,0,0,0) kv=34.5000 pf=0.92 kW=8.7401 Daily=MT-Tipo1
New Load.MT_25987-9940865_52 Bus1=25987-9940865.1.2.3 Phases=3 Conn=wye Model=8 zipv=(0.5,0,0.5,1,0,0,0) kv=13.8000 pf=0.92 kW=46.5415 Daily=MT-Tipo1
New Load.MT_25427-11441933_53 Bus1=25427-11441933.1.2.3 Phases=3 Conn=wye Model=8 zipv=(0.5,0,0.5,1,0,0,0) kv=34.5000 pf=0.92 kW=17.9470 Daily=MT-Tipo7
New Load.MT_25423-9919341_54 Bus1=25423-9919341.1.2.3 Phases=3 Conn=wye Model=8 zipv=(0.5,0,0.5,1,0,0,0) kv=13.8000 pf=0.92 kW=17.8310 Daily=MT-Tipo1
New Load.MT_25424-12449574_55 Bus1=25424-12449574.1.2.3 Phases=3 Conn=wye Model=8 zipv=(0.5,0,0.5,1,0,0,0) kv=13.8000 pf=0.92 kW=3.0985 Daily=MT-Tipo1
New Load.MT_25424-9940928_56 Bus1=25424-9940928.1.2.3 Phases=3 Conn=wye Model=8 zipv=(0.5,0,0.5,1,0,0,0) kv=13.8000 pf=0.92 kW=5.7126 Daily=MT-Tipo9
New Load.MT_25987-12482301_57 Bus1=25987-12482301.1.2.3 Phases=3 Conn=wye Model=8 zipv=(0.5,0,0.5,1,0,0,0) kv=13.8000 pf=0.92 kW=1.1901 Daily=MT-Tipo3
New Load.MT_25987-9940862_58 Bus1=25987-9940862.1.2.3 Phases=3 Conn=wye Model=8 zipv=(0.5,0,0.5,1,0,0,0) kv=13.8000 pf=0.92 kW=14.2905 Daily=MT-Tipo5
